@<TRIPOS>MOLECULE
MOH
    6     5     1     0     0
SMALL
bcc


@<TRIPOS>ATOM
      1 C          -0.8500   -1.3980   -0.0680 c3        1 MOH      0.116700
      2 O1          0.5780   -1.3980   -0.0680 oh        1 MOH     -0.598800
      3 H1          0.8680   -1.6350    0.8160 ho        1 MOH      0.396000
      4 H2         -1.2130   -0.6710    0.6590 h1        1 MOH      0.028700
      5 H3         -1.2130   -2.3910    0.1980 h1        1 MOH      0.028700
      6 H4         -1.2130   -1.1320   -1.0610 h1        1 MOH      0.028700
@<TRIPOS>BOND
     1    1    2 1   
     2    1    4 1   
     3    1    5 1   
     4    1    6 1   
     5    2    3 1   
@<TRIPOS>SUBSTRUCTURE
     1 MOH         1 TEMP              0 ****  ****    0 ROOT
